10
        -14.27401451, gfn1_xtb, ##OPT##
  C -1.27590576  0.70066617  0.00186333
  C -0.00000275 -0.11004613 -0.00002213
  C  1.27588389  0.70070143 -0.00185493
  O  0.00002254 -1.30984401  0.00000623
  H -1.40670745  1.14441463 -0.98502438
  H -1.22156354  1.50415733  0.73417049
  H -2.12366358  0.05344126  0.21687481
  H  2.12364715  0.05349320 -0.21689634
  H  1.40668084  1.14439552  0.98505791
  H  1.22154198  1.50423261 -0.73411781