14
-436.51219560637 , orca b3lyp 6-31g** rijcosx autoaux
  C -1.93564275 -0.32113223 -0.00007943
  C -0.54178204 -0.34852788  0.00037336
  C  0.14722130  0.86330951 -0.00009813
  C -0.55559922  2.07199095 -0.00095882
  C -1.95351048  2.07528493 -0.00147563
  C -2.65676347  0.87164243 -0.00106573
  H -0.02741572 -1.30178307  0.00113116
  H  1.23353567  0.86427453  0.00027068
  H -0.01168206  3.01236089 -0.00123246
  H -2.49765176  3.01476686 -0.00220488
  H -3.73957512  0.83459767 -0.00146657
  N -2.67571331 -1.59684588  0.00070144
  O -2.02097015 -2.63874870  0.00207585
  O -3.90545091 -1.54519002  0.00002916
