%chk=benzene_and_chlorine.chk
# hf/3-21g geom=connectivity

Title Card Required

0 1
C          -0.70770911000038    0.34242389576197    0.11871118171917
C           0.67686427795860    0.34258834537434    0.13594570996292
C           1.37247348171901    1.50684685334002   -0.14394631224525
C           0.68363865430799    2.67103253476077   -0.44048942679929
C          -0.70073825292435    2.67079380007314   -0.45776607993330
C          -1.39638869351120    1.50630087068222   -0.17867520169884
H          -1.25057483933897   -0.56571895630017    0.33913521119451
H           1.21442818211196   -0.56541182606527    0.36984427906662
H           2.45292545215882    1.50753411153805   -0.12815300067995
H           1.22693083025420    3.57988500656871   -0.65599548940903
H          -1.23882569406950    3.57939785700435   -0.68666362181322
H          -2.47673314779963    1.50702379668741   -0.18957723185582
CL          0.71457198171893    2.30239329265244    3.12298866424575
CL         -1.27189640258545    2.60348247792210    3.01095875824570

 1 2 1.5 6 1.5 7 1.0
 2 3 1.5 8 1.0
 3 4 1.5 9 1.0
 4 5 1.5 10 1.0
 5 6 1.5 11 1.0
 6 12 1.0
 7
 8
 9
 10
 11
 12
 13 14 1.0
 14

