11
-171.11735199420025 , 
  C -4.56261348  1.51469264 -0.09478744
  C -3.32959662  2.46055884  0.09143129
  N -2.44400523  1.27454810 -0.13992435
  H -3.27569043  2.86313902  1.09705842
  H -3.21014525  3.25146621 -0.63257460
  C -3.57281955  0.31583448  0.08606026
  H -4.96261451  1.56255607 -1.09590693
  H -5.35270516  1.60245401  0.63439202
  H -3.63310013 -0.47816712 -0.64189350
  H -3.61099219 -0.09356248  1.08965550
  H -1.60167932  1.17768151  0.39671796