8
-11.48230483216
  C  1.22795372  0.02142126 -0.00005482
  H  1.83038290  0.12772777  0.89855839
  H  0.87825155 -1.01340497 -0.00002187
  H  1.83024789  0.12771355 -0.89876049
  C  0.02846029  0.85529735  0.00002729
  H -0.32420763  1.29897657  0.91703460
  H -0.32435453  1.29893961 -0.91694146
  F -1.10789611 -0.79326942  0.00014710