%chk=selenoacrolein_twisted.chk
# hf/3-21g geom=connectivity

Title Card Required

0 1
 C                 -0.43589744    0.07692308    0.00000000
 H                 -1.50589744    0.07692308    0.00000000
 C                  0.23937687    1.25190037    0.00000000
 H                  1.30937687    1.25190037    0.00000000
 C                 -0.52798030    2.58710185    0.00000000
 H                 -0.79456217    3.05095431    0.92664718
 Se                 0.53077328   -1.60508398    0.00000000
 H                 -0.79456217    3.05095431   -0.92664719

 1 2 1.0 3 2.0 7 1.0
 2
 3 4 1.0 5 1.0
 4
 5 6 1.0 8 1.0
 6
 7
 8

