 22
 -0.812990
  C 2.631041 -1.106006 -1.087251
  C 1.455434 -0.247406 -0.720351
  N 1.111331 -0.245041 0.632617
  C 0.013297 0.566859 1.209729
  C -1.371254 -0.047197 0.856896
  N -1.758278 -0.027354 -0.465546
  C -3.048602 -0.606777 -0.886890
  O 0.828412 0.404243 -1.546050
  C 0.093496 2.034731 0.807076
  O -2.076272 -0.498913 1.749501
  H 2.309296 -1.912838 -1.766184
  H 3.154692 -1.571598 -0.246397
  H 3.367552 -0.509480 -1.650547
  H 1.622931 -0.819779 1.296557
  H 0.101545 0.488022 2.332978
  H -1.131844 0.311498 -1.206454
  H -2.896399 -1.545093 -1.446400
  H -3.596200 0.105940 -1.525332
  H -3.681067 -0.836997 -0.005680
  H -0.743522 2.607400 1.225767
  H 0.068112 2.166270 -0.287359
  H 1.024024 2.496249 1.159830
