5
 energy: -15.995923324981 gnorm: 0.000267425181 xtb: 6.3.1-r1 (acf1ac7)
C        -2.26278993150100    0.84736386116475    0.05835802991315
H        -1.90030183850255    1.34881542339833   -0.84462365528146
F        -3.59823402376651    0.83420363535189    0.04886833480415
Cl       -1.68298956473894    1.70721405848058    1.49951702933542
Br       -1.63266231503553   -0.99553761283768    0.02091239622496
