8
-11.445193363982 , 
  C  1.17533831  0.05035295 -0.00004680
  H  1.74236699 -0.08031493  0.91296719
  H  0.35372057 -0.84902928  0.00000808
  H  1.74219966 -0.08030210 -0.91316667
  C  0.14114263  0.98984277  0.00001525
  H -0.29076930  1.34834485  0.91839476
  H -0.29090963  1.34829027 -0.91832074
  F -1.11224923 -0.88850354  0.00014893