16
 SCF done        -17.892595977653          0.000089892206
C          -4.57802293461671    0.53720440740614    3.90430740207102
H          -4.26762167627140    1.57950618255454    3.93850504628815
H          -5.51278168601203    0.47486146043080    3.35061125025642
H          -4.75509438328158    0.19249163466968    4.92114344145685
C          -3.50985035763228   -0.31033875391750    3.23390395021451
H          -3.83151972651329   -1.35363824233324    3.19003648976532
C          -2.96100438846715    0.21208351386926    1.92918067227832
H          -3.44278785175136    0.40866074797921    0.98819743675900
C          -1.72105446394384    0.34460069104685    2.38501780490946
H          -0.79006109994180    0.66595201277252    1.95351646914002
C          -2.05310145391873   -0.14862879214054    3.77171537425375
H          -1.96985636197937    0.61977124843729    4.54405014041475
C          -1.35173594524531   -1.41909118839995    4.22202062248233
H          -1.42077629278014   -2.18310841204944    3.45038437460202
H          -0.29951116158683   -1.22131328248818    4.41681969925854
H          -1.80586570605820   -1.80213854783745    5.13370996584956
