10
        -12.95203030, gfn0_xtb, ##OPT##
  C -1.26859266 -0.70253942 -0.00000008
  C -0.00000002  0.11793902  0.00000010
  C  1.26859246 -0.70253975  0.00000011
  O  0.00000021  1.30911446 -0.00000002
  H -1.29749400 -1.34006133 -0.88210372
  H -1.29749671 -1.34006316  0.88210211
  H -2.13329076 -0.04106458  0.00000031
  H  2.13329069 -0.04106507  0.00000480
  H  1.29749157 -1.34006611  0.88210056
  H  1.29749847 -1.34005903 -0.88210529