13
        -17.48309499, gfn1_xtb, ##OPT##
  C -1.04595084  0.74331848  0.18002023
  C -1.04624667 -0.74286474 -0.18012481
  C  0.39968826  1.16672395 -0.10961711
  C  0.39912783 -1.16686637  0.10988637
  O  1.19673717 -0.00029698 -0.00017278
  H -1.28028960  0.87935384  1.23934273
  H -1.76190986  1.31563073 -0.41151430
  H -1.28035707 -0.87879334 -1.23951117
  H -1.76260919 -1.31485924  0.41122685
  H  0.75970832  1.91536463  0.60744511
  H  0.49163809  1.58051348 -1.12611296
  H  0.75888702 -1.91605406 -0.60672290
  H  0.49073040 -1.58015177  1.12662693