%chk=ma_start.chk
# irc=(calcfc,maxpoints=10) pm6 geom=connectivity

Title Card Required

0 1
 C                 -1.24073702    0.42056947    0.00000000
 H                 -2.18305532    0.98357011    0.00000000
 C                  0.01034895    1.14145449    0.00000000
 H                 -0.01099808    2.22579145   -0.00000000
 C                  1.18982471    0.45681731    0.00000000
 O                 -1.26027547   -0.81762971    0.00000000
 O                  1.27481837   -0.87165994   -0.00000000
 H                  2.18746624    0.90246093    0.00000000
 H                  0.31018563   -1.34055473   -0.00000000

 1 2 1.0 3 1.5 6 2.0
 2
 3 4 1.0 5 2.0
 4
 5 7 1.5 8 1.0
 6
 7
 8
 9

