%chk=02_azetidine_not_opt_sym.chk
#P hf/3-21g opt

Title Card Required

0 1
 C                 -2.34863259    0.70994422    0.14975543
 H                 -1.82664215   -0.18774343   -0.10828112
 H                 -3.39537825    0.49299009    0.10333942
 N                 -1.96488182    1.28417466    1.38787045
 H                 -0.98378042    1.23964802    1.57617181
 C                 -2.38604561    2.48589673    0.76463760
 H                 -3.44072555    2.64557427    0.84862153
 H                 -1.90158885    3.36988967    1.12346645
 C                 -2.01779803    2.00680465   -0.70250775
 H                 -2.49979795    1.48773285   -1.50446820
 H                 -2.52937959    2.89193912   -1.01829449
 
 
