%chk=02_buta_twist.chk
#P td=(nstates=5) bp86/def2SVP gfinput iop(6/7=3)

Title Card Required

0 1
 C                 -1.64743592   -0.05128205    0.00000000
 H                 -1.11427218   -0.97898697    0.00000000
 H                 -2.71743592   -0.05128205    0.00000000
 C                 -0.97216162    1.12369525    0.00000000
 H                 -1.50532536    2.05140017    0.00000000
 C                  0.56783838    1.12369525    0.00000000
 H                  1.10100213    1.11614523    0.92767420
 C                  1.25008178    1.13322484   -1.17090570
 H                  0.72243931    1.14080050   -2.10173115
 H                  2.32006290    1.13317310   -1.16454861

 1 2 1.0 3 1.0 4 2.0
 2
 3
 4 5 1.0 6 1.0
 5
 6 7 1.0 8 2.0
 7
 8 9 1.0 10 1.0
 9
 10

