%chk=c6.chk
# hf/3-21g geom=connectivity

Title Card Required

0 1
 C                 -1.32681559    1.13128490    0.00000000
 C                  0.06834441    1.13128490    0.00000000
 C                  0.76588241    2.33903590    0.00000000
 C                  0.06822841    3.54754490   -0.00119900
 C                 -1.32659659    3.54746690   -0.00167800
 C                 -2.02419759    2.33926090   -0.00068200

 1 2 1.5 6 1.5
 2 3 1.5
 3 4 1.5
 4 5 1.5
 5 6 1.5
 6

