%chk=sf6.chk
# hf/3-21g geom=connectivity

Title Card Required

0 1
 S                 -0.59356137    0.59356136    0.00000000
 F                 -0.59356137    0.59356136   -1.59000000
 F                 -0.59356137    2.18356136    0.00000000
 F                 -2.18356137    0.59356136    0.00000000
 F                 -0.59356137    0.59356136    1.59000000
 F                 -0.59356137   -0.99643864    0.00000000
 F                  0.99643863    0.59356136    0.00000000

 1 2 1.0 3 1.0 4 1.0 5 1.0 6 1.0 7 1.0
 2
 3
 4
 5
 6
 7

