14
        -22.17657822, gfn1_xtb, ##OPT##
  C  0.73433167 -1.17358253  0.21859906
  C -0.73428664 -1.17360745 -0.21859864
  O  1.37775961  0.00002517 -0.24544246
  C  0.73428664  1.17360745  0.21859864
  C -0.73433167  1.17358253 -0.21859907
  O -1.37775962 -0.00002517  0.24544246
  H  1.26585097 -2.02350812 -0.22075914
  H  0.79745277 -1.23318878  1.31742217
  H -1.26577754 -2.02355654  0.22074745
  H -0.79739900 -1.23320737 -1.31742348
  H  1.26577755  2.02355655 -0.22074745
  H  0.79739900  1.23320737  1.31742348
  H -0.79745276  1.23318879 -1.31742217
  H -1.26585097  2.02350812  0.22075914