%chk=benzene_and_no.chk
# opt freq pm6

Title Card Required

1 1
 C                 -2.88784062   -3.31342210   -1.77247252
 C                 -1.49268062   -3.31342210   -1.77247252
 C                 -0.79514262   -2.10567110   -1.77247252
 C                 -1.49279662   -0.89716210   -1.77367152
 C                 -2.88762162   -0.89724010   -1.77415052
 C                 -3.58522262   -2.10544610   -1.77315452
 H                 -3.43759962   -4.26573910   -1.77202252
 H                 -0.94317262   -4.26593510   -1.77115752
 H                  0.30453738   -2.10559110   -1.77183852
 H                 -0.94259662    0.05498090   -1.77373052
 H                 -3.43774362    0.05504090   -1.77510352
 H                 -4.68482662   -2.10526310   -1.77333452
 N                  0.00000000    0.00000000   -0.57754532
 O                  0.00000000    0.00000000    0.50535215
 
 
 
