%chk=t_yj9.chk
# opt=calcall hf/sto-3g geom=connectivity

Title Card Required

0 1
 C                 -1.64743592   -0.05128205    0.00000000
 H                 -1.11427218   -0.97898697    0.00000000
 H                 -2.71743592   -0.05128205    0.00000000
 C                 -0.97216162    1.12369525    0.00000000
 H                 -1.50532536    2.05140017    0.00000000
 C                  0.56783838    1.12369525    0.00000000
 H                  1.10100213    0.19599033    0.00000000
 C                  1.25008178    2.29463973    0.00000000
 H                  0.72243931    3.22549601   -0.00000000
 H                  2.32006290    2.28828243    0.00000000

 1 2 1.0 3 1.0 4 2.0
 2
 3
 4 5 1.0 6 1.0
 5
 6 7 1.0 8 2.0
 7
 8 9 1.0 10 1.0
 9
 10

