12
-163.959101
  N -0.06059700  1.25530600  0.45331500
  B  1.33523100  0.82606300  0.19853200
  N -0.51767100 -1.49953600 -0.49846800
  B -1.40296200 -0.76278400  0.23351000
  H  0.42839900 -1.15901400 -0.68302000
  H  1.94993900  0.45077000  1.15949300
  H  1.62752300  0.34681800 -0.88408600
  H -0.51626700  1.53118300 -0.42528700
  H  1.38248300  2.10033600  0.06808000
  H -0.73173800 -2.39792100 -0.90587100
  H -2.53912900 -1.01707600  0.47402800
  H -0.95521000  0.32585200  0.80977400