8
-11.48768926528
  C  1.20451117  0.13743418 -0.00005380
  H  1.66078272 -0.20740337  0.91596697
  H -0.20333748 -0.88496607  0.00006922
  H  1.66063798 -0.20743124 -0.91613629
  C  0.21809478  1.02533338  0.00000920
  H -0.23368345  1.37613527  0.91325642
  H -0.23382542  1.37610409 -0.91317987
  F -1.14718847 -0.95354907  0.00015220