    41
        -82.92805595
C          -7.12933224524018    3.53286317748414    0.45071754023162
C          -6.27650995650915    4.19556094205177    1.30631289146060
C          -5.48366293293473    3.52843988671969    2.24366495894665
C          -7.18053128112005    2.13975833538306    0.56362162699499
C          -6.40393815687180    1.45771863712343    1.50099541611204
C          -5.54490716062691    2.15263574287344    2.34808963035201
O          -8.02087246559006    1.47793697076632   -0.26798676855623
H          -7.98745794506862    0.52293396841289   -0.12099407589039
H          -7.73785646131703    4.05134819338482   -0.27693271113288
H          -6.47323451498372    0.37777423155142    1.56446730343366
H          -4.94063131196639    1.62091349737247    3.07347862482900
C          -4.65514593218222    4.54747862446836    2.96222592960052
C          -5.29829112043423    5.88789632732689    2.45320762845081
O          -6.10451024477055    5.55178189343406    1.34662670358255
N          -6.17381671746246    6.49359234991324    3.43747491586475
C          -4.17695654466285    6.88326110819687    2.09758051878781
N          -3.79113435925212    7.62993579110234    3.16248775791325
C          -5.74408184452885    7.18653298846278    4.50526234396875
C          -4.23577580273894    7.41268175533028    4.51818953967005
O          -3.65790241041685    6.95938638615161    1.01436565134642
H          -2.92750197715015    8.14382174541264    3.03841564405407
O          -6.49008155899423    7.60127736961767    5.36917680905431
C          -3.88089515256340    8.66204321788391    5.38420104288949
C          -2.39082691779613    8.92194605674456    5.33046097475035
C          -1.54028178426146    8.26686843881456    6.21637052764602
C          -0.17083460531914    8.47025680349674    6.14512662273162
C           0.35849082283365    9.32655837957059    5.18835349475390
C          -0.48627192267702    9.98869547015370    4.30923280061966
C          -1.85919007204633    9.78957434684717    4.37992392010920
H          -1.95939663219027    7.60368285385415    6.96418522049866
H           0.48715013781064    7.95816098417796    6.83814639209138
H           1.42976976045592    9.48301959594574    5.13213772688964
H          -2.51824189278424   10.32873300106810    3.70689214689448
H          -0.07860460440750   10.66612910769230    3.56742154717482
O          -4.27415715825447    8.45176731111922    6.70744822904622
H          -4.42630905659859    9.51610741559623    4.94003152931349
H          -5.22855275280404    8.24522095512487    6.71572321191746
S          -4.71597550817484    4.41379473508222    4.77587017718623
H          -3.60819837144227    4.50454311977441    2.64364990042620
S          -3.41496179686152    5.93096860635621    5.24233254503776
H          -7.15640944809681    6.27286587815717    3.37367761094885
