13
       -232.34040962, b973c_orca, ##OPT##
  C -1.03238181  0.72792181  0.22610955
  C -1.03285644 -0.72714823 -0.22631966
  C  0.37975337  1.16134357 -0.13473285
  C  0.37875461 -1.16155169  0.13521936
  O  1.20630826 -0.00053854 -0.00029598
  H -1.18656066  0.78930699  1.30387790
  H -1.79505269  1.33349860 -0.25956612
  H -1.18653286 -0.78848329 -1.30416358
  H -1.79621802 -1.33211941  0.25903222
  H  0.76817118  1.94528030  0.51626625
  H  0.42702234  1.52361093 -1.16778367
  H  0.76672032 -1.94641444 -0.51490911
  H  0.42538916 -1.52286928  1.16865079