14
        -20.76786294, gfn2_xtb, ##OPT##
  C  0.73320186  1.16007282 -0.21974792
  C -0.73315700  1.16009636  0.21974728
  O  1.39151462 -0.00002510  0.24377174
  C  0.73315700 -1.16009636 -0.21974728
  C -0.73320186 -1.16007283  0.21974792
  O -1.39151462  0.00002510 -0.24377174
  H  1.26790127  2.00991148  0.20600971
  H  0.78392727  1.20285485 -1.31846521
  H -1.26782901  2.00996091 -0.20599137
  H -0.78387194  1.20286652  1.31846708
  H  1.26782901 -2.00996090  0.20599137
  H  0.78387193 -1.20286651 -1.31846708
  H -0.78392726 -1.20285486  1.31846522
  H -1.26790128 -2.00991149 -0.20600972