10
        -13.53417885, gfn2_xtb, ##OPT##
  C -1.26762423  0.70478559  0.00210029
  C -0.00000039 -0.11359306 -0.00000317
  C  1.26761701  0.70479691 -0.00209906
  O  0.00000711 -1.31709902  0.00000095
  H -1.39527674  1.15696693 -0.98008099
  H -1.20620713  1.50358813  0.73658786
  H -2.12547118  0.07126211  0.21044512
  H  2.12546456  0.07128037 -0.21046205
  H  1.39527661  1.15696116  0.98008900
  H  1.20619174  1.50361351 -0.73657088