14
       -307.52146629, b973c_orca, ##OPT##
  C  0.72345641  1.16696134 -0.21928883
  C -0.72339008  1.16699823  0.21929136
  O  1.39547770 -0.00003452  0.24031735
  C  0.72339008 -1.16699827 -0.21929134
  C -0.72345642 -1.16696131  0.21928885
  O -1.39547770  0.00003452 -0.24031739
  H  1.25549008  2.02045286  0.19893263
  H  0.77686590  1.22320295 -1.31428143
  H -1.25536339  2.02052458 -0.19893929
  H -0.77685581  1.22322563  1.31428002
  H  1.25536338 -2.02052460  0.19893936
  H  0.77685583 -1.22322572 -1.31428000
  H -0.77686585 -1.22320280  1.31428144
  H -1.25549013 -2.02045285 -0.19893250