14
        -19.41497568, gfn0_xtb, ##OPT##
  C  0.72247370  1.15648181 -0.23227910
  C -0.72247503  1.15648110  0.23227910
  O  1.38396546  0.00000073  0.25287716
  C  0.72247504 -1.15648110 -0.23227909
  C -0.72247370 -1.15648181  0.23227910
  O -1.38396547 -0.00000073 -0.25287716
  H  1.26160665  2.01183160  0.17852092
  H  0.75456561  1.19452856 -1.32943145
  H -1.26160885  2.01183019 -0.17852121
  H -0.75456672  1.19452822  1.32943140
  H  1.26160886 -2.01183019  0.17852122
  H  0.75456671 -1.19452822 -1.32943141
  H -0.75456561 -1.19452855  1.32943146
  H -1.26160665 -2.01183159 -0.17852092