13
        -16.16148576, gfn0_xtb, ##OPT##
  C -1.03414575  0.72997338  0.22274147
  C -1.03423743 -0.72976342 -0.22291511
  C  0.38109707  1.15070629 -0.13346663
  C  0.38076557 -1.15072587  0.13387926
  O  1.20688629 -0.00019193 -0.00025137
  H -1.19229871  0.78741413  1.29943432
  H -1.78808527  1.32358461 -0.28712023
  H -1.19194826 -0.78719273 -1.29967416
  H -1.78851388 -1.32319424  0.28665716
  H  0.76455330  1.93301169  0.52489064
  H  0.42205295  1.50566575 -1.17035027
  H  0.76415359 -1.93365144 -0.52376360
  H  0.42135051 -1.50485980  1.17106844