63
-80.69848743835
  C -3.23153178  1.05441906 -3.36851710
  C -2.59702834  1.20533774 -2.15186862
  C -0.56744998  1.80569874 -3.26289216
  C -1.20588719  1.66439767 -4.48348240
  C -2.53586867  1.28652005 -4.54339138
  H -4.27300622  0.76831504 -3.40154479
  H -3.15446025  1.05055729 -1.23746104
  H  0.46825088  2.11001589 -3.23356650
  H -0.65935250  1.85596330 -5.39564104
  H -3.02875223  1.18011871 -5.49831506
  C  0.57894452  2.58727855 -0.43218036
  C  1.80671538  2.07699550 -1.14551004
  O  2.76430931  2.98697853 -1.26276889
  O  1.94624075  0.90360227 -1.40146841
  C  4.05535481  2.50176015 -1.61709691
  H  4.05607267  2.13803346 -2.64679365
  H  4.73566158  3.34246817 -1.50951354
  H  4.34264893  1.68473276 -0.95281846
  C -1.25251616  1.57333159 -2.07586197
  C -0.66301320  1.76629608 -0.72883867
  P -0.01172164  0.42478358  0.52578052
  C  1.55577090 -0.37301213  1.14979348
  H  2.21845949 -0.53307204  0.29957955
  H  1.99531275  0.40129080  1.77961022
  C -1.04948287  0.61682384  2.03569881
  H -1.47643434  1.62190790  1.98522941
  H -0.32644231  0.62877265  2.85435158
  C -0.76376895 -1.07977670 -0.34525321
  H -0.88112761 -1.90910874  0.35221547
  H -1.75876076 -0.79184281 -0.69071924
  C  0.06459749 -1.52280578 -1.54405890
  H  0.30902558 -0.65384123 -2.15566422
  H  1.00666519 -1.95283070 -1.20107152
  C -0.67101978 -2.54878672 -2.40313025
  H -0.96813993 -3.39947537 -1.78354015
  H -1.58123431 -2.09505636 -2.80339287
  C  0.19917822 -3.03860028 -3.55397103
  H -0.34146166 -3.75306508 -4.17102486
  H  0.50090079 -2.20120790 -4.17901167
  H  1.09675022 -3.52201895 -3.17416345
  C -2.15686313 -0.39603588  2.29051380
  H -1.73367140 -1.38778708  2.45908198
  H -2.80325024 -0.45655430  1.41319397
  C -3.01627760 -0.01371361  3.49866100
  H -3.85441245 -0.71215143  3.56055453
  H -3.43035579  0.98561268  3.34611636
  C -2.24906049 -0.04629033  4.81529904
  H -2.92314217  0.14129681  5.64791079
  H -1.78754236 -1.02063068  4.96300327
  H -1.47093484  0.71204013  4.83410306
  C  1.39374470 -1.66403256  1.94047980
  H  0.60131177 -1.55782124  2.68341468
  H  1.12425038 -2.48364392  1.27281526
  C  2.69553049 -2.03192790  2.66092885
  H  2.59276267 -3.04114035  3.06802752
  H  3.51358883 -2.04964682  1.93747035
  C  3.04570653 -1.08044834  3.80006961
  H  3.93172074 -1.43257360  4.32377831
  H  3.24910876 -0.07845751  3.43249232
  H  2.22659569 -1.02432931  4.51421980
  O  0.83272054  2.10986999  0.86061342
  H -1.44764902  2.19766815 -0.09261470
  H  0.48826838  3.67578771 -0.46843753
