12
Energy = -229.4332821667
C     1.4160025    0.0000000   -0.0000000 
C     0.7080016    1.2262943    0.0000000 
C    -0.7080016    1.2262943   -0.0000000 
C    -1.4160025    0.0000000   -0.0000000 
C    -0.7080016   -1.2262943    0.0000000 
C     0.7080016   -1.2262943    0.0000000 
H     2.5208146    0.0000000   -0.0000000 
H     1.2604003    2.1830933    0.0000000 
H    -1.2604003    2.1830933   -0.0000000 
H    -2.5208146    0.0000000   -0.0000000 
H    -1.2604003   -2.1830933    0.0000000 
H     1.2604003   -2.1830933    0.0000000 
