    41
        -82.82939935
C          -6.75286909481039    3.79204601307755    0.51521279491827
C          -6.02828840822708    4.50832821511752    1.44348005733113
C          -5.27797599115588    3.89370516719624    2.44854299921130
C          -6.71469224609620    2.39840359638855    0.62234062862835
C          -5.98062357375501    1.76698800128893    1.62660170753940
C          -5.25455958852748    2.51643771638565    2.54839735759006
O          -7.42777703775916    1.68387325208019   -0.28300880578460
H          -7.32920530930090    0.73281019722667   -0.14087193218378
H          -7.32770171017712    4.27075098093711   -0.26514520026807
H          -5.97759008269072    0.68444639080572    1.68277929945380
H          -4.68347153987121    2.02583641110255    3.32771989771295
C          -4.59176843232378    4.95915508776218    3.24653079659699
C          -5.23077926400393    6.26659924683251    2.63168921755439
O          -5.95912072263844    5.87230166310094    1.49603212028621
N          -6.16637348391854    6.98692812755830    3.50062940580598
C          -4.07210932193272    7.25573974112762    2.36205192608890
N          -3.64539907300259    7.74681321828668    3.54060029330719
C          -5.66633659369788    7.35027942656945    4.69858072123892
C          -4.28767274652788    7.56752063806017    4.81576605347979
O          -3.58657077655634    7.50745405324241    1.28772957395976
H          -2.84259205629518    8.36159228332155    3.51434229044717
O          -6.48492430789836    7.44394080254793    5.73849134915223
C          -3.88533868761426    9.67324143736535    6.21155191041337
C          -2.45449575710595    9.59032522578638    5.83474776212948
C          -1.55970796761341    8.94112566649349    6.68967186617650
C          -0.22027409788351    8.84653628341462    6.35479291169888
C           0.23904638331680    9.40150681804585    5.16579842150086
C          -0.64121001032066   10.05774610832110    4.31423000612616
C          -1.98532127816965   10.15331222030662    4.64447386878158
H          -1.93797792395030    8.51239455919360    7.61128459277195
H           0.47186988757079    8.33998344440242    7.01822057986440
H           1.28835129801090    9.32612997861262    4.90315641510816
H          -2.67130318134088   10.68287480521042    3.99053834493812
H          -0.27910680058975   10.49598841145610    3.39127241001682
O          -4.30972774736141    9.34282380881741    7.29429765117557
H          -4.52680624848993   10.15926499594672    5.44767662481780
H          -7.38837881668302    7.15272689210680    5.55410594878038
S          -4.75899376751281    4.67243962772979    5.04427158637035
H          -3.52075545621445    4.98392045966593    3.01528107608928
S          -3.59845349262475    6.26015446401146    5.79990889177483
H          -7.14078497424952    6.74858456310731    3.38669657940153
